LTspice 26.0.1 for Windows
Circuit: C:\Users\harry\LtspiceProject\Examples\AC해석예제.net
Start Time: Mon Feb  2 21:48:29 2026
solver = Normal
Maximum thread count: 8
tnom = 27
temp = 27
method = trap
WARNING: Node n008 is floating.

.OP point found by inspection.
.OP point found by inspection.
Total elapsed time: 0.047 seconds.

Files loaded:
C:\Users\harry\LtspiceProject\Examples\AC해석예제.net

