LTspice 26.0.1 for Windows
Circuit: C:\Users\harry\LtspiceProject\IPT\ipt1.net
Start Time: Mon Feb  2 18:00:34 2026
solver = Normal
Maximum thread count: 8
tnom = 27
temp = 27
method = trap
.OP point found by inspection.
.OP point found by inspection.
Total elapsed time: 0.185 seconds.

Files loaded:
C:\Users\harry\LtspiceProject\IPT\ipt1.net

